
**** 03/28/22 18:16:09 ***** PSpice 16.6.0 (October 2012) ***** ID# 0 ********

 ** Profile: "SCHEMATIC1-bias"  [ C:\Users\grboehringer\Documents\hw5\hw5-pspicefiles\schematic1\bias.sim ] 


 ****     CIRCUIT DESCRIPTION


******************************************************************************




** Creating circuit file "bias.cir" 
** WARNING: THIS AUTOMATICALLY GENERATED FILE MAY BE OVERWRITTEN BY SUBSEQUENT SIMULATIONS

*Libraries: 
* Profile Libraries :
* Local Libraries :
* From [PSPICE NETLIST] section of C:\Users\grboehringer\cdssetup\OrCAD_PSpice/16.6.0/PSpice.ini file:
.lib "nom.lib" 

*Analysis directives: 
.TRAN  0 3000ns 0 
.OPTIONS ADVCONV
.PROBE64 V(alias(*)) I(alias(*)) W(alias(*)) D(alias(*)) NOISE(alias(*)) 
.INC "..\SCHEMATIC1.net" 



**** INCLUDING SCHEMATIC1.net ****
* source HW5
T_T1         N14444 0 N14448 0 Z0=75 TD=50ns  
R_R1         N14437 N14444  25 TC=0,0 
R_R2         0 N14448  1k TC=0,0 
V_V2         N14437 0  
+PULSE 0 5 50ns 1p 1p 1s 2s
T_T2         N15252 0 N15258 0 Z0=75 TD=50ns  
R_R3         N15242 N15252  25 TC=0,0 
V_V3         N15242 0  
+PULSE 0 5 50ns 1p 1p 1s 2s
R_R4         0 N15354  1k TC=0,0 
T_T3         N15258 0 N15354 0 Z0=75 TD=50ns  

**** RESUMING bias.cir ****
.END

**** 03/28/22 18:16:09 ***** PSpice 16.6.0 (October 2012) ***** ID# 0 ********

 ** Profile: "SCHEMATIC1-bias"  [ C:\Users\grboehringer\Documents\hw5\hw5-pspicefiles\schematic1\bias.sim ] 


 ****     INITIAL TRANSIENT SOLUTION       TEMPERATURE =   27.000 DEG C


******************************************************************************



 NODE   VOLTAGE     NODE   VOLTAGE     NODE   VOLTAGE     NODE   VOLTAGE


(N14437)    0.0000 (N14444)    0.0000 (N14448)    0.0000 (N15242)    0.0000     

(N15252)    0.0000 (N15258)    0.0000 (N15354)    0.0000 




    VOLTAGE SOURCE CURRENTS
    NAME         CURRENT

    V_V2         0.000E+00
    V_V3         0.000E+00

    TOTAL POWER DISSIPATION   0.00E+00  WATTS



          JOB CONCLUDED

**** 03/28/22 18:16:09 ***** PSpice 16.6.0 (October 2012) ***** ID# 0 ********

 ** Profile: "SCHEMATIC1-bias"  [ C:\Users\grboehringer\Documents\hw5\hw5-pspicefiles\schematic1\bias.sim ] 


 ****     JOB STATISTICS SUMMARY


******************************************************************************



  Total job time (using Solver 1)   =         .02
